OM4_SIS2_cgrid_025
1900 1 1 0 0 0

"ocean_daily%4yr%2mo%2dy",1,"days",1,"days","time",1,"days"

'ocean_model', 'temp', 'temp', 'ocean_daily%4yr%2mo%2dy', 'all', 'mean','none',2
'ocean_model', 'salt', 'salt', 'ocean_daily%4yr%2mo%2dy', 'all', 'mean','none',2
'ocean_model', 'ssh',  'ssh',  'ocean_daily%4yr%2mo%2dy', 'all', 'mean','none',2
'ocean_model', 'u',    'u',    'ocean_daily%4yr%2mo%2dy', 'all', 'mean','none',2
'ocean_model', 'v',    'v',    'ocean_daily%4yr%2mo%2dy', 'all', 'mean','none',2